@<TRIPOS>MOLECULE
Molecule gphosphorylase_3.mol2
     9     0
SMALL
NO_CHARGES
@<TRIPOS>ATOM
      1 DON         0.1472   -2.0050    1.5912 HB    0     HB      0.0000
      2 DON        -1.9250   -0.6907   -0.0259 HB    1     HB      0.0000
      3 DON        -0.7601    0.4254   -3.9371 HB    2     HB      0.0000
      4 ACC         0.8631   -1.1264   -2.3762 HB    3     HB      0.0000
      5 ACC         0.1472   -2.0050    1.5912 HB    4     HB      0.0000
      6 ACC        -1.9250   -0.6907   -0.0259 HB    5     HB      0.0000
      7 ACC        -0.7601    0.4254   -3.9371 HB    6     HB      0.0000
      8 ACC         0.6479   -3.4823   -2.5304 HB    7     HB      0.0000
      9 ANI         1.1533   -4.0408   -3.9969 CHG   8     CHG     0.3244
@<TRIPOS>BOND
@<TRIPOS>MOLECULE
gphosphorylase_3.mol2
    26    26
SMALL
NO_CHARGES
@<TRIPOS>ATOM
      1 C1         -0.0147   -2.1527    0.1802 C.3   1     <0>1    0.1192
      2 C2         -0.5614   -0.8501   -0.4086 C.3   1     <0>1    0.1122
      3 C3          1.3513   -2.4706   -0.4139 C.3   1     <0>1    0.1802
      4 C4         -0.4723   -0.8539   -1.9400 C.3   1     <0>1    0.1130
      5 C5          1.3526   -2.3946   -1.9363 C.3   1     <0>1    0.2065
      6 C6         -0.8754    0.4959   -2.5279 C.3   1     <0>1    0.0730
      7 O1          0.1788   -5.1759   -4.2965 O.co2 1     <0>1   -0.7505
      8 O2          2.5893   -4.5017   -3.7648 O.co2 1     <0>1   -0.7505
      9 O3          1.0203   -2.8456   -4.9361 O.co2 1     <0>1   -0.7505
     10 O4          0.8631   -1.1264   -2.3762 O.3   1     <0>1   -0.3396
     11 O5          0.1472   -2.0050    1.5912 O.3   1     <0>1   -0.3861
     12 O6         -1.9250   -0.6907   -0.0259 O.3   1     <0>1   -0.3865
     13 O7         -0.7601    0.4254   -3.9371 O.3   1     <0>1   -0.3924
     14 O8          0.6479   -3.4823   -2.5304 O.3   1     <0>1   -0.2434
     15 F1          1.7213   -3.7225   -0.0317 F     1     <0>1   -0.2374
     16 P1          1.1533   -4.0408   -3.9969 P.3   1     <0>1    0.3244
     17 H1         -0.7217   -2.9882   -0.0325 H     1     <0>1    0.0651
     18 H2          0.0313    0.0066   -0.0111 H     1     <0>1    0.0647
     19 H3          2.0942   -1.7398   -0.0173 H     1     <0>1    0.0730
     20 H4         -1.1523   -1.6414   -2.3407 H     1     <0>1    0.0647
     21 H5          2.4143   -2.4703   -2.2683 H     1     <0>1    0.0947
     22 H61        -0.2945    1.3425   -2.0930 H     1     <0>1    0.0584
     23 H62        -1.9506    0.6632   -2.2845 H     1     <0>1    0.0584
     24 H5          0.4866   -2.8136    1.9567 H     1     <0>1    0.2100
     25 H6         -2.2644    0.1179   -0.3914 H     1     <0>1    0.2100
     26 H7         -1.0110    1.2655   -4.3030 H     1     <0>1    0.2095
@<TRIPOS>BOND
     1     1     2    1 
     2     1     3    1 
     3     1    11    1 
     4     1    17    1 
     5     2     4    1 
     6     2    12    1 
     7     2    18    1 
     8     3     5    1 
     9     3    15    1 
    10     3    19    1 
    11     4     6    1 
    12     4    10    1 
    13     4    20    1 
    14     5    10    1 
    15     5    14    1 
    16     5    21    1 
    17     6    13    1 
    18     6    22    1 
    19     6    23    1 
    20     7    16    1 
    21     8    16    1 
    22     9    16    2 
    23    11    24    1 
    24    12    25    1 
    25    13    26    1 
    26    14    16    1 
@<TRIPOS>MOLECULE
Molecule gphosphorylase_3.mol2
     9     0
SMALL
NO_CHARGES
@<TRIPOS>ATOM
      1 DON         0.1472   -2.0050    1.5912 HB    0     HB      0.0000
      2 DON        -1.9250   -0.6907   -0.0259 HB    1     HB      0.0000
      3 DON        -0.7601    0.4254   -3.9371 HB    2     HB      0.0000
      4 ACC         0.8631   -1.1264   -2.3762 HB    3     HB      0.0000
      5 ACC         0.1472   -2.0050    1.5912 HB    4     HB      0.0000
      6 ACC        -1.9250   -0.6907   -0.0259 HB    5     HB      0.0000
      7 ACC        -0.7601    0.4254   -3.9371 HB    6     HB      0.0000
      8 ACC         0.6479   -3.4823   -2.5304 HB    7     HB      0.0000
      9 ANI         1.1533   -4.0408   -3.9969 CHG   8     CHG     0.3244
@<TRIPOS>BOND
@<TRIPOS>MOLECULE
gphosphorylase_1.mol2
    27    27
SMALL
NO_CHARGES
@<TRIPOS>ATOM
      1 C1         -0.8672   -1.0952   -1.3458 C.3   1     <0>1    0.1141
      2 C2         -0.2413   -0.5995   -2.6510 C.3   1     <0>1    0.1119
      3 C3          0.1941   -1.7261   -0.4468 C.3   1     <0>1    0.1339
      4 C4          0.6255   -1.6876   -3.2990 C.3   1     <0>1    0.1140
      5 C5          1.0322   -2.7593   -1.2014 C.3   1     <0>1    0.1854
      6 C6          1.3843   -1.1663   -4.5164 C.3   1     <0>1    0.0906
      7 O1          3.0587   -4.5555   -5.1460 O.co2 1     <0>1   -0.7506
      8 O2          0.6490   -4.1261   -4.3997 O.co2 1     <0>1   -0.7506
      9 O3          2.6039   -3.4410   -2.8879 O.co2 1     <0>1   -0.7506
     10 O4          1.6038   -2.1781   -2.3751 O.3   1     <0>1   -0.3407
     11 O5         -1.4448    0.0253   -0.6717 O.3   1     <0>1   -0.3864
     12 O6         -1.2970   -0.2186   -3.5301 O.3   1     <0>1   -0.3865
     13 O7         -0.4375   -2.3286    0.6772 O.3   1     <0>1   -0.3841
     14 O8          0.3035   -3.9513   -1.4891 O.3   1     <0>1   -0.3649
     15 O9          2.1642   -2.2222   -5.0465 O.3   1     <0>1   -0.2740
     16 P1          2.1117   -3.7011   -4.3087 P.3   1     <0>1    0.3221
     17 H1         -1.6604   -1.8455   -1.5721 H     1     <0>1    0.0648
     18 H2          0.3931    0.2918   -2.4356 H     1     <0>1    0.0647
     19 H3          0.8722   -0.9201   -0.0812 H     1     <0>1    0.0671
     20 H4         -0.0299   -2.5324   -3.6151 H     1     <0>1    0.0647
     21 H5          1.8776   -3.0459   -0.5333 H     1     <0>1    0.0935
     22 H61         0.3058   -1.4347   -4.4264 H     1     <0>1    0.0594
     23 H62         1.7647   -0.9465   -3.4916 H     1     <0>1    0.0594
     24 H5         -1.8333   -0.2825    0.1387 H     1     <0>1    0.2100
     25 H6         -0.9084    0.0892   -4.3405 H     1     <0>1    0.2100
     26 H7          0.2226   -2.7210    1.2364 H     1     <0>1    0.2101
     27 H8          0.8240   -4.5930   -1.9577 H     1     <0>1    0.2126
@<TRIPOS>BOND
     1     1     2    1 
     2     1     3    1 
     3     1    11    1 
     4     1    17    1 
     5     2     4    1 
     6     2    12    1 
     7     2    18    1 
     8     3     5    1 
     9     3    13    1 
    10     3    19    1 
    11     4     6    1 
    12     4    10    1 
    13     4    20    1 
    14     5    10    1 
    15     5    14    1 
    16     5    21    1 
    17     6    15    1 
    18     6    22    1 
    19     6    23    1 
    20     7    16    1 
    21     8    16    1 
    22     9    16    2 
    23    11    24    1 
    24    12    25    1 
    25    13    26    1 
    26    14    27    1 
    27    15    16    1 
@<TRIPOS>MOLECULE
Molecule gphosphorylase_1.mol2
    11     0
SMALL
NO_CHARGES
@<TRIPOS>ATOM
      1 DON        -1.4448    0.0253   -0.6717 HB    0     HB      0.0000
      2 DON        -1.2970   -0.2186   -3.5301 HB    1     HB      0.0000
      3 DON        -0.4375   -2.3286    0.6772 HB    2     HB      0.0000
      4 DON         0.3035   -3.9513   -1.4891 HB    3     HB      0.0000
      5 ACC         1.6038   -2.1781   -2.3751 HB    4     HB      0.0000
      6 ACC        -1.4448    0.0253   -0.6717 HB    5     HB      0.0000
      7 ACC        -1.2970   -0.2186   -3.5301 HB    6     HB      0.0000
      8 ACC        -0.4375   -2.3286    0.6772 HB    7     HB      0.0000
      9 ACC         0.3035   -3.9513   -1.4891 HB    8     HB      0.0000
     10 ACC         2.1642   -2.2222   -5.0465 HB    9     HB      0.0000
     11 ANI         2.1117   -3.7011   -4.3087 CHG   10    CHG     0.3221
@<TRIPOS>BOND
@<TRIPOS>MOLECULE
gphosphorylase_2.mol2
    27    27
SMALL
NO_CHARGES
@<TRIPOS>ATOM
      1 C1         -0.0917   -2.1138    0.1021 C.3   1     <0>1    0.1141
      2 C2         -0.6283   -0.8305   -0.5353 C.3   1     <0>1    0.1119
      3 C3          1.3055   -2.4322   -0.4263 C.3   1     <0>1    0.1348
      4 C4         -0.4810   -0.8659   -2.0626 C.3   1     <0>1    0.1130
      5 C5          1.3541   -2.3939   -1.9545 C.3   1     <0>1    0.2013
      6 C6         -0.8754    0.4959   -2.5279 C.3   1     <0>1    0.0730
      7 O1          0.1786   -5.1758   -4.2964 O.co2 1     <0>1   -0.7505
      8 O2          2.5892   -4.5018   -3.7649 O.co2 1     <0>1   -0.7505
      9 O3          1.0203   -2.8456   -4.9361 O.co2 1     <0>1   -0.7505
     10 O4          0.8741   -1.1378   -2.4382 O.3   1     <0>1   -0.3399
     11 O5         -0.0231   -1.9170    1.5163 O.3   1     <0>1   -0.3864
     12 O6         -2.0009   -0.6984   -0.1733 O.3   1     <0>1   -0.3865
     13 O7          1.7088   -3.7118    0.0485 O.3   1     <0>1   -0.3841
     14 O8         -0.7601    0.4253   -3.9371 O.3   1     <0>1   -0.3924
     15 O9          0.6753   -3.5138   -2.5128 O.3   1     <0>1   -0.2437
     16 P1          1.1533   -4.0408   -3.9969 P.3   1     <0>1    0.3244
     17 H1         -0.7800   -2.9610   -0.1251 H     1     <0>1    0.0648
     18 H2         -0.0601    0.0409   -0.1344 H     1     <0>1    0.0647
     19 H3          2.0154   -1.6687   -0.0309 H     1     <0>1    0.0671
     20 H4         -1.1382   -1.6684   -2.4714 H     1     <0>1    0.0647
     21 H5          2.2511   -2.1993   -2.5010 H     1     <0>1    0.0944
     22 H61        -0.3032    1.3255   -2.2732 H     1     <0>1    0.0584
     23 H62        -1.9481    0.6343   -2.5119 H     1     <0>1    0.0584
     24 H5          0.3102   -2.7138    1.9120 H     1     <0>1    0.2100
     25 H6         -2.3342    0.0984   -0.5690 H     1     <0>1    0.2100
     26 H7          2.5779   -3.9099   -0.2801 H     1     <0>1    0.2101
     27 H8         -1.0109    1.2653   -4.3031 H     1     <0>1    0.2095
@<TRIPOS>BOND
     1     1     2    1 
     2     1     3    1 
     3     1    11    1 
     4     1    17    1 
     5     2     4    1 
     6     2    12    1 
     7     2    18    1 
     8     3     5    1 
     9     3    13    1 
    10     3    19    1 
    11     4     6    1 
    12     4    10    1 
    13     4    20    1 
    14     5    10    1 
    15     5    15    1 
    16     5    21    1 
    17     6    14    1 
    18     6    22    1 
    19     6    23    1 
    20     7    16    1 
    21     8    16    1 
    22     9    16    2 
    23    11    24    1 
    24    12    25    1 
    25    13    26    1 
    26    14    27    1 
    27    15    16    1 
@<TRIPOS>MOLECULE
Molecule gphosphorylase_2.mol2
    11     0
SMALL
NO_CHARGES
@<TRIPOS>ATOM
      1 DON        -0.0231   -1.9170    1.5163 HB    0     HB      0.0000
      2 DON        -2.0009   -0.6984   -0.1733 HB    1     HB      0.0000
      3 DON         1.7088   -3.7118    0.0485 HB    2     HB      0.0000
      4 DON        -0.7601    0.4253   -3.9371 HB    3     HB      0.0000
      5 ACC         0.8741   -1.1378   -2.4382 HB    4     HB      0.0000
      6 ACC        -0.0231   -1.9170    1.5163 HB    5     HB      0.0000
      7 ACC        -2.0009   -0.6984   -0.1733 HB    6     HB      0.0000
      8 ACC         1.7088   -3.7118    0.0485 HB    7     HB      0.0000
      9 ACC        -0.7601    0.4253   -3.9371 HB    8     HB      0.0000
     10 ACC         0.6479   -3.4823   -2.5304 HB    9     HB      0.0000
     11 ANI         1.1533   -4.0408   -3.9969 CHG   10    CHG     0.3244
@<TRIPOS>BOND
